data_diamond
_chemical_name_common 'Diamond'
_chemical_formula_sum 'C'
_cell_length_a 3.567
_cell_length_b 3.567
_cell_length_c 3.567
_cell_angle_alpha 90
_cell_angle_beta 90
_cell_angle_gamma 90

loop_
_atom_site_label
_atom_site_type_symbol
_atom_site_fract_x
_atom_site_fract_y
_atom_site_fract_z
C1 C 0.00000 0.00000 0.00000
C2 C 0.00000 0.50000 0.50000
C3 C 0.50000 0.00000 0.50000
C4 C 0.50000 0.50000 0.00000
C5 C 0.25000 0.25000 0.25000
C6 C 0.25000 0.75000 0.75000
C7 C 0.75000 0.25000 0.75000
C8 C 0.75000 0.75000 0.25000
